validacao_ieee30_gerado.pwf
TITU
VALIDACAO IEEE 30 - MODELAGEM VIA TAP CHANGER
DBAR
(Num)OETGb(    nome    )Gl( V)( A)( Pg)( Qg)( Qn)( Qm)(Bc  )( Pl)( Ql)
    1 L2 AGlen-Lyn     1060   0.0  260.8  -19.2  -9999   9999    0.0    0.0    0.0
    2 L1 AClaytor      1043  -5.3   40.0   44.9  -40.0   50.0    0.0   21.7   12.7
    3 L  AKumis        1026  -7.6    0.0    0.0    0.0    0.0    0.0    2.4    1.2
    4 L  AHancock      1018  -9.4    0.0    0.0    0.0    0.0    0.0    7.6    1.6
    5 L1 AFieldale     1010 -14.1    0.0   35.9  -40.0   40.0    0.0   94.2   19.0
    6 L  ARoanoke      1013 -11.1    0.0    0.0    0.0    0.0    0.0    0.0    0.0
    7 L  ABlaine       1004 -12.9    0.0    0.0    0.0    0.0    0.0   22.8   10.9
    8 L1 AReusens      1010 -11.8    0.0   28.4  -10.0   40.0    0.0   30.0   30.0
    9 L  AZRoanoke     1036 -14.4    0.0    0.0    0.0    0.0    0.0    0.0    0.0
   10 L  ATRoanoke     1025 -16.1    0.0    0.0    0.0    0.0   19.0    5.8    2.0
   11 L1 ASRoanoke     1081 -14.4    0.0   23.8   -6.0   24.0    0.0    0.0    0.0
   12 L  ATHancock     1033 -15.4    0.0    0.0    0.0    0.0    0.0   11.2    7.5
   13 L1 ASHancock     1071 -15.4    0.0   28.4   -6.0   24.0    0.0    0.0    0.0
   14 L  ABarra14      1018 -16.3    0.0    0.0    0.0    0.0    0.0    6.2    1.6
   15 L  ABarra15      1014 -16.4    0.0    0.0    0.0    0.0    0.0    8.2    2.5
   16 L  ABarra16      1022 -15.9    0.0    0.0    0.0    0.0    0.0    3.5    1.8
   17 L  ABarra17      1019 -16.2    0.0    0.0    0.0    0.0    0.0    9.0    5.8
   18 L  ABarra18      1006 -17.0    0.0    0.0    0.0    0.0    0.0    3.2    0.9
   19 L  ABarra19      1004 -17.2    0.0    0.0    0.0    0.0    0.0    9.5    3.4
   20 L  ABarra20      1008 -16.9    0.0    0.0    0.0    0.0    0.0    2.2    0.7
   21 L  ABarra21      1012 -16.5    0.0    0.0    0.0    0.0    0.0   17.5   11.2
   22 L  ABarra22      1012 -16.5    0.0    0.0    0.0    0.0    0.0    0.0    0.0
   23 L  ABarra23      1004 -16.7    0.0    0.0    0.0    0.0    0.0    3.2    1.6
   24 L  ABarra24       998 -16.9    0.0    0.0    0.0    0.0    4.3    8.7    6.7
   25 L  ABarra25       991 -16.4    0.0    0.0    0.0    0.0    0.0    0.0    0.0
   26 L  ABarra26       972 -16.8    0.0    0.0    0.0    0.0    0.0    3.5    2.3
   27 L  ATCloverdle    995 -15.8    0.0    0.0    0.0    0.0    0.0    0.0    0.0
   28 L  AACloverdle   1009 -11.7    0.0    0.0    0.0    0.0    0.0    0.0    0.0
   29 L  ABarra29       974 -17.1    0.0    0.0    0.0    0.0    0.0    2.4    0.9
   30 L  ABarra30       963 -18.0    0.0    0.0    0.0    0.0    0.0   10.6    1.9
DLIN
(De )d O d(Pa )NcEP ( R% )( X% )(Mvar)(Tap)(Tmn)(Tmx)(Phs)(Bc  )(Cn)(Ce)Ns
    1     2   1        1.92   5.75   5.28
    1     3   1        4.52  16.52   4.08
    2     4   1        5.70  17.37   3.68
    2     5   1        4.72  19.83   4.18
    2     6   1        5.81  17.63   3.74
    3     4   1        1.32   3.79   0.84
    4     6   1        1.19   4.14   0.90
    5     7   1        4.60  11.60   2.04
    6     7   1        2.67   8.20   1.70
    6     8   1        1.20   4.20   0.90
    6    28   1        1.69   5.99   1.30
    8    28   1        6.36  20.00   4.28
    9    10   1        0.00  11.00   0.00
    9    11   1        0.00  20.80   0.00
   10    17   1        3.24   8.45   0.00
   10    20   1        9.36  20.90   0.00
   10    21   1        3.48   7.49   0.00
   10    22   1        7.27  14.99   0.00
   12    13   1        0.00  14.00   0.00
   12    14   1       12.31  25.59   0.00
   12    15   1        6.62  13.04   0.00
   12    16   1        9.45  19.87   0.00
   14    15   1       22.10  19.97   0.00
   15    18   1       10.73  21.85   0.00
   15    23   1       10.00  20.20   0.00
   16    17   1        5.24  19.23   0.00
   18    19   1        6.39  12.92   0.00
   19    20   1        3.40   6.80   0.00
   21    22   1        1.16   2.36   0.00
   22    24   1       11.50  17.90   0.00
   23    24   1       13.20  27.00   0.00
   24    25   1       18.85  32.92   0.00
   25    26   1       25.44  38.00   0.00
   25    27   1       10.93  20.87   0.00
   27    29   1       21.98  41.53   0.00
   27    30   1       32.02  60.27   0.00
   29    30   1       23.99  45.33   0.00
    4    12   1        0.00  25.60   0.00  0.932
    6     9   1        0.00  20.80   0.00  0.978
    6    10   1        0.00  55.60   0.00  0.969
   28    27   1        0.00  39.60   0.00  0.968
99999
FIM
